_audit_creation_date      'June 22, 2022'
_audit_creation_method    'Draft CIF file generated with Atomsk'
 
_chemical_name_common             ?
_chemical_melting_point           ?
_chemical_formula_iupac           'H4'
_chemical_formula_moiety          'H4'
_chemical_formula_sum             'H4'
_chemical_formula_weight          4.032
_chemical_compound_source         ?
_chemical_absolute_configuration  ?
_exptl_crystal_description        'EDIT-ENTRY'
_diffrn_measurement_device_type   'EDIT-ENTRY'
 
_space_group_IT_number            1
_space_group_crystal_system       orthorhombic
_symmetry_space_group_name_Hall   'P 1'
_symmetry_space_group_name_H-M    'P 1'
 
loop_
_space_group_symop_operation_xyz
'+x,+y,+z'
 
_cell_length_a  4.371885
_cell_length_b  4.191495
_cell_length_c  4.15317
_cell_angle_alpha  86.1206141512333
_cell_angle_beta  86.3777492666806
_cell_angle_gamma  86.0689624690865
_cell_volume                      65.7430
 
loop_
 _atom_site_label
 _atom_site_type_symbol
 _atom_site_fract_x
 _atom_site_fract_y
 _atom_site_fract_z
H1  H  -0.047172  1.014625  1.032684
H2  H  0.000798  0.490980  0.511323
H3  H  0.479629 -0.008493  0.491687
H4  H  0.507313  0.536562 -0.007400
