_audit_creation_date      'June 22, 2022'
_audit_creation_method    'Draft CIF file generated with Atomsk'
 
_chemical_name_common             ?
_chemical_melting_point           ?
_chemical_formula_iupac           'H2'
_chemical_formula_moiety          'H2'
_chemical_formula_sum             'H2'
_chemical_formula_weight          2.016
_chemical_compound_source         ?
_chemical_absolute_configuration  ?
_exptl_crystal_description        'EDIT-ENTRY'
_diffrn_measurement_device_type   'EDIT-ENTRY'
 
_space_group_IT_number            1
_space_group_crystal_system       triclinic
_symmetry_space_group_name_Hall   'P 1'
_symmetry_space_group_name_H-M    'P 1'
 
loop_
_space_group_symop_operation_xyz
'+x,+y,+z'
 
_cell_length_a  2.573865
_cell_length_b  2.573865
_cell_length_c  4.117575
_cell_angle_alpha  90.6759469353086
_cell_angle_beta  86.7962934198978
_cell_angle_gamma  124.463449217234
_cell_volume                      17.6723
 
loop_
 _atom_site_label
 _atom_site_type_symbol
 _atom_site_fract_x
 _atom_site_fract_y
 _atom_site_fract_z
H1  H  0.666667  0.333333  0.750000
H2  H  0.333333  0.666667  0.250000
