_audit_creation_date      'June 22, 2022'
_audit_creation_method    'Draft CIF file generated with Atomsk'
 
_chemical_name_common             ?
_chemical_melting_point           ?
_chemical_formula_iupac           'Be9 Li8 B5 C11 H14 He7'
_chemical_formula_moiety          'Be9 Li8 B5 C11 H14 He7'
_chemical_formula_sum             'Be9 Li8 B5 C11 H14 He7'
_chemical_formula_weight          364.931
_chemical_compound_source         ?
_chemical_absolute_configuration  ?
_exptl_crystal_description        'EDIT-ENTRY'
_diffrn_measurement_device_type   'EDIT-ENTRY'
 
_space_group_IT_number            1
_space_group_crystal_system       orthorhombic
_symmetry_space_group_name_Hall   'P 1'
_symmetry_space_group_name_H-M    'P 1'
 
loop_
_space_group_symop_operation_xyz
'+x,+y,+z'
 
_cell_length_a  10.54116
_cell_length_b  10.47984
_cell_length_c  10.22427
_cell_angle_alpha  91.927946307925
_cell_angle_beta  91.4633589080724
_cell_angle_gamma  93.1316209899676
_cell_volume                      975.6802
 
loop_
 _atom_site_label
 _atom_site_type_symbol
 _atom_site_fract_x
 _atom_site_fract_y
 _atom_site_fract_z
Be1  Be  0.821872  0.826697  0.838159
Li1  Li  0.485305  0.827209  0.840695
B1  B  0.828203  0.510288  0.831668
C1  C  0.496208  0.499149  0.843159
H1  H  0.658866  0.671463  0.663756
He1  He  0.832372  0.830247  0.490286
C2  C  0.483913  0.822035  0.486992
C3  C  0.832631  0.492243  0.499323
Be2  Be  0.506327  0.491423  0.498005
Li2  Li  0.680687  0.669666  0.335086
H2  H  0.814606  0.844426  0.158384
He2  He  0.671439  0.663519 -0.008341
C4  C  0.501274  0.828681  0.164069
H3  H  0.831013  0.488809  0.171165
H4  H  0.518970  0.496843  0.158082
He3  He  0.838032  0.164885  0.821130
H5  H  0.485511  0.168979  0.845941
Li3  Li  0.667464  0.329210  0.680077
C5  C  0.661176 -0.006064  0.665796
H6  H  0.825119  0.178407  0.497846
B2  B  0.518292  0.182537  0.496784
He4  He  0.659150  0.331555  0.328678
Be3  Be  0.665372  0.001087  0.339007
Be4  Be  0.681184  0.325550 -0.015274
C6  C  0.832500  0.172825  0.170812
H7  H  0.664620  0.012331 -0.010735
Li4  Li  0.505757  0.178758  0.158737
H8  H  0.182720  0.842780  0.832243
Li5  Li  0.168885  0.506041  0.826559
He5  He  0.338778  0.665843  0.669522
H9  H  0.002035  0.686332  0.668829
B3  B  0.184550  0.831317  0.502295
C7  C  0.169308  0.504013  0.514234
H10  H  0.329381  0.637972  0.319795
Be5  Be  0.006015  0.674322  0.327803
Be6  Be  0.315324  0.654497  0.011468
Li6  Li  0.188808  0.838343  0.176449
C8  C  -0.001446  0.673908  0.008472
He6  He  0.151571  0.498114  0.167846
C9  C  0.173689  0.154889  0.837669
H11  H  0.340660  0.326215  0.665965
Be7  Be  -0.004403  0.326133  0.680680
Be8  Be  0.347943  0.003001  0.660854
Li7  Li  -0.011046 -0.011233  0.668084
H12  H  0.166258  0.161254  0.517855
C10  C  0.326053  0.333522  0.328667
Li8  Li  0.015200  0.329084  0.335821
H13  H  0.340823  0.025493  0.336238
C11  C  0.001031 -0.006702  0.334881
B4  B  0.311748  0.343755  0.012731
H14  H  -0.001516  0.337720 -0.013482
He7  He  0.335013  0.002616  0.013469
Be9  Be  0.162695  0.162984  0.153320
B5  B  -0.007942 -0.004969 -0.007556
