_audit_creation_date      'March 22, 2022'
_audit_creation_method    'Draft CIF file generated with Atomsk'
 
_chemical_name_common             ?
_chemical_melting_point           ?
_chemical_formula_iupac           'Mn4 Ni4'
_chemical_formula_moiety          'Mn4 Ni4'
_chemical_formula_sum             'Mn4 Ni4'
_chemical_formula_weight          454.526
_chemical_compound_source         ?
_chemical_absolute_configuration  ?
_exptl_crystal_description        'EDIT-ENTRY'
_diffrn_measurement_device_type   'EDIT-ENTRY'
 
_space_group_IT_number            1
_space_group_crystal_system       cubic
_symmetry_space_group_name_Hall   'P 1'
_symmetry_space_group_name_H-M    'P 1'
 
loop_
_space_group_symop_operation_xyz
'+x,+y,+z'
 
_cell_length_a                    4.6358
_cell_length_b                    4.6358
_cell_length_c                    4.6358
_cell_angle_alpha                 90.0000
_cell_angle_beta                  90.0000
_cell_angle_gamma                 90.0000
_cell_volume                      99.6263
 
loop_
 _atom_site_label
 _atom_site_type_symbol
 _atom_site_fract_x
 _atom_site_fract_y
 _atom_site_fract_z
Mn1  Mn  0.000000  0.000000  0.000000
Ni1  Ni  0.500000  0.500000  0.500000
Mn2  Mn  1.000000  0.500000  0.500000
Ni2  Ni  0.500000  0.000000  0.000000
Mn3  Mn  0.500000  0.500000  0.000000
Ni3  Ni  1.000000  1.000000  0.500000
Mn4  Mn  0.500000  1.000000  0.500000
Ni4  Ni  1.000000  0.500000  0.000000
