_audit_creation_date      'June 22, 2022'
_audit_creation_method    'Draft CIF file generated with Atomsk'
 
_chemical_name_common             ?
_chemical_melting_point           ?
_chemical_formula_iupac           'H'
_chemical_formula_moiety          'H'
_chemical_formula_sum             'H'
_chemical_formula_weight          1.008
_chemical_compound_source         ?
_chemical_absolute_configuration  ?
_exptl_crystal_description        'EDIT-ENTRY'
_diffrn_measurement_device_type   'EDIT-ENTRY'
 
_space_group_IT_number            1
_space_group_crystal_system       triclinic
_symmetry_space_group_name_Hall   'P 1'
_symmetry_space_group_name_H-M    'P 1'
 
loop_
_space_group_symop_operation_xyz
'+x,+y,+z'
 
_cell_length_a  2.416155
_cell_length_b  2.416155
_cell_length_c  2.416155
_cell_angle_alpha  86.3408250946043
_cell_angle_beta  94.9524924694921
_cell_angle_gamma  91.6413640529547
_cell_volume                      12.1842
 
loop_
 _atom_site_label
 _atom_site_type_symbol
 _atom_site_fract_x
 _atom_site_fract_y
 _atom_site_fract_z
H1  H  0.500004  0.500003  0.499993
